[General]
network = VideoStreamingShowcase
scheduler-class = "inet::RealTimeScheduler"
sim-time-limit = 30s

**.crcMode = "computed"
**.fcsMode = "computed"

*.host1.eth[0].typename = "ExtUpperEthernetInterface"
*.host1.eth[0].device = "tapa"
*.host1.eth[0].copyConfiguration = "copyFromExt"

*.host2.eth[0].typename = "ExtUpperEthernetInterface"
*.host2.eth[0].device = "tapb"
*.host2.eth[0].copyConfiguration = "copyFromExt"
*.host2.numPcapRecorders = 1
*.host2.pcapRecorder[*].pcapFile = "results/host2.pcap"

*.configurator.config = xml("<config> \
                                <interface hosts='router' names='eth0' address='192.168.2.99' netmask='255.255.255.0'/> \
                                <interface hosts='router' names='eth1' address='192.168.3.99' netmask='255.255.255.0'/> \
                             </config>")
*.router.ipv4.natTable.config = xml("<config> \
                                        <entry type='prerouting' \
                                        packetDataFilter='*Ipv4Header and destAddress=~192.168.2.99' \
                                        srcAddress='192.168.3.99' destAddress='192.168.3.20'/> \
                                        <entry type='prerouting' \
                                        packetDataFilter='*Ipv4Header and destAddress=~192.168.3.99' \
                                        srcAddress='192.168.2.99' destAddress='192.168.2.20'/> \
                                     </config>")

*.radioMedium.backgroundNoise.typename = "IsotropicScalarBackgroundNoise" # type
*.radioMedium.backgroundNoise.power = -110 dBm # isotropic scalar noise power

*.visualizer.*.interfaceTableVisualizer.displayInterfaceTables = true
*.visualizer.*.interfaceTableVisualizer.nodeFilter = "not name=~switch*"

**.duplexMode = true
**.eth*.bitrate = 10Mbps
